Version 4
SHEET 1 2392 800
WIRE -816 -240 -1024 -240
WIRE -672 -240 -816 -240
WIRE -144 -240 -672 -240
WIRE 432 -240 -144 -240
WIRE 176 -128 -512 -128
WIRE 816 -128 176 -128
WIRE 176 -80 176 -128
WIRE -512 -32 -512 -128
WIRE 16 -32 -512 -32
WIRE 432 -32 432 -240
WIRE 432 -32 336 -32
WIRE -512 64 -512 -32
WIRE 16 64 -512 64
WIRE 432 64 432 48
WIRE 432 64 336 64
WIRE 640 64 432 64
WIRE 816 64 816 -128
WIRE 816 64 704 64
WIRE 960 64 816 64
WIRE 1072 64 960 64
WIRE 1152 64 1072 64
WIRE 1200 64 1152 64
WIRE 1328 64 1280 64
WIRE 1488 64 1328 64
WIRE 432 80 432 64
WIRE 1488 96 1488 64
WIRE -816 112 -816 -240
WIRE -672 112 -672 -240
WIRE 1152 128 1152 64
WIRE 16 160 -240 160
WIRE 384 160 336 160
WIRE 1328 224 1328 64
WIRE 16 256 -64 256
WIRE 1152 256 1152 208
WIRE 1152 256 336 256
WIRE -240 288 -240 160
WIRE -1024 304 -1024 -240
WIRE 1488 304 1488 176
WIRE 1152 320 1152 256
WIRE 1616 320 1536 320
WIRE 816 336 816 64
WIRE 960 336 960 64
WIRE -64 384 -64 256
WIRE -512 400 -512 64
WIRE -240 400 -240 368
WIRE 1488 416 1488 384
WIRE 1536 416 1536 368
WIRE 1536 416 1488 416
WIRE 432 464 432 176
WIRE 816 464 816 400
WIRE 960 464 960 400
WIRE 1152 464 1152 400
WIRE 1328 464 1328 304
WIRE 1488 464 1488 416
WIRE 1616 464 1616 400
WIRE -1024 480 -1024 384
WIRE -816 480 -816 176
WIRE -672 480 -672 176
WIRE -512 480 -512 464
WIRE -240 480 -240 464
WIRE -64 480 -64 464
WIRE 176 480 176 304
FLAG -64 480 0
FLAG -512 480 0
FLAG -240 480 0
FLAG 176 480 0
FLAG -1024 480 0
FLAG 1152 464 0
FLAG 960 464 0
FLAG 432 464 0
FLAG 1072 64 OUT
FLAG -144 -240 BAT
FLAG 816 464 0
FLAG -816 480 0
FLAG 1328 464 0
FLAG -672 480 0
FLAG 1488 464 0
FLAG 1616 464 0
SYMBOL PowerProducts\\LTC1871 176 112 R0
SYMATTR InstName U1
SYMBOL res 1136 112 R0
SYMATTR InstName R1
SYMATTR Value 150k
SYMBOL res 1136 304 R0
SYMATTR InstName R2
SYMATTR Value 43k
SYMBOL res -80 368 R0
SYMATTR InstName R3
SYMATTR Value 33k
SYMBOL res -256 272 R0
SYMATTR InstName R4
SYMATTR Value 18k
SYMBOL cap 944 336 R0
SYMATTR InstName C1
SYMATTR Value 47µ
SYMBOL cap -528 400 R0
SYMATTR InstName C3
SYMATTR Value 4.7µ
SYMBOL cap -256 400 R0
SYMATTR InstName C4
SYMATTR Value 100n
SYMBOL voltage -1024 288 R0
WINDOW 123 0 0 Left 2
WINDOW 39 0 0 Left 2
SYMATTR InstName V1
SYMATTR Value 2.7
SYMBOL nmos 384 80 R0
SYMATTR InstName M1
SYMATTR Value BSC080N03MS
SYMBOL ind 416 -48 R0
SYMATTR InstName L1
SYMATTR Value 2.2µ
SYMBOL schottky 640 80 R270
WINDOW 0 32 32 VTop 2
WINDOW 3 0 32 VBottom 2
SYMATTR InstName D1
SYMATTR Value MBRS360
SYMBOL cap 800 336 R0
SYMATTR InstName C2
SYMATTR Value 22µ
SYMBOL cap -832 112 R0
SYMATTR InstName C5
SYMATTR Value 22µ
SYMBOL res 1312 208 R0
SYMATTR InstName R5
SYMATTR Value 18
SYMBOL cap -688 112 R0
SYMATTR InstName C6
SYMATTR Value 100n
SYMBOL sw 1488 400 R180
WINDOW 3 24 -12 Left 2
SYMATTR InstName S1
SYMBOL voltage 1616 304 R0
WINDOW 123 0 0 Left 2
WINDOW 39 0 0 Left 2
SYMATTR InstName V2
SYMATTR Value PULSE(-1 1 400u 0 0 200u 400u 1)
SYMBOL res 1472 80 R0
SYMATTR InstName R6
SYMATTR Value 1.4
SYMBOL voltage 1184 64 R270
WINDOW 0 32 56 VTop 2
WINDOW 3 -32 56 VBottom 2
SYMATTR InstName V3
SYMATTR Value 0
TEXT 504 -176 Left 2 !.tran 0 1m 0 1u startup uic
TEXT 1544 256 Left 2 !.model SW SW()
TEXT 1600 -96 Left 2 !*.step param X 20k 30k 10k
